Polypyrole
  MatStudio         3D                             0

102111  0  0  0  0  0  0  0  0999 V2000
    7.7119    2.1306   -7.5632 C   0  0  0  0  0  0  0  0  0  1
    7.2967    3.0344   -8.0090 C   0  0  0  0  0  0  0  0  0  2
    8.0012   -0.0529   -6.9916 S   0  0  0  0  0  0  0  0  0  3
    7.1934    0.8663   -7.6897 C   0  0  0  0  0  0  0  0  0  5
    6.2918    0.6115   -8.2467 H   0  0  0  0  0  0  0  0  0  6
    9.0394    0.8374   -6.4194 C   0  0  0  0  0  0  0  0  0  7
    8.9078    2.0661   -6.7356 C   0  0  0  0  0  0  0  0  0  9
    9.5551    2.8941   -6.4467 H   0  0  0  0  0  0  0  0  0 10
    6.1788    3.0863   -7.7917 H   0  0  0  0  0  0  0  0  0  0
    7.4641    3.0135   -9.1365 H   0  0  0  0  0  0  0  0  0  0
    7.8129    3.9488   -7.5651 H   0  0  0  0  0  0  0  0  0  0
   10.3638   -0.9861   -5.1521 C   0  0  0  0  0  0  0  0  0  1
    9.7259   -1.8222   -5.4387 C   0  0  0  0  0  0  0  0  0  2
   11.1883    1.1254   -4.9529 S   0  0  0  0  0  0  0  0  0  3
   10.1791    0.3229   -5.5205 C   0  0  0  0  0  0  0  0  0  5
   12.0001    0.1167   -4.2307 C   0  0  0  0  0  0  0  0  0  7
   11.5519   -1.0744   -4.3156 C   0  0  0  0  0  0  0  0  0  9
   11.9707   -1.9706   -3.8577 H   0  0  0  0  0  0  0  0  0 10
   10.1302   -2.7838   -4.9789 H   0  0  0  0  0  0  0  0  0  0
    9.7146   -1.9196   -6.5745 H   0  0  0  0  0  0  0  0  0  0
    8.6657   -1.6376   -5.0626 H   0  0  0  0  0  0  0  0  0  0
   13.7974    1.7396   -3.3243 C   0  0  0  0  0  0  0  0  0  1
   13.3846    2.6428   -3.7737 C   0  0  0  0  0  0  0  0  0  2
   14.0805   -0.4423   -2.7438 S   0  0  0  0  0  0  0  0  0  3
   13.2752    0.4763   -3.4455 C   0  0  0  0  0  0  0  0  0  5
   15.1215    0.4473   -2.1756 C   0  0  0  0  0  0  0  0  0  7
   14.9933    1.6750   -2.4968 C   0  0  0  0  0  0  0  0  0  9
   15.6430    2.5024   -2.2114 H   0  0  0  0  0  0  0  0  0 10
   12.2660    2.6963   -3.5603 H   0  0  0  0  0  0  0  0  0  0
   13.5557    2.6189   -4.9005 H   0  0  0  0  0  0  0  0  0  0
   13.9003    3.5577   -3.3303 H   0  0  0  0  0  0  0  0  0  0
   16.4410   -1.3748   -0.9012 C   0  0  0  0  0  0  0  0  0  1
   15.8006   -2.2102   -1.1842 C   0  0  0  0  0  0  0  0  0  2
   17.2716    0.7352   -0.7108 S   0  0  0  0  0  0  0  0  0  3
   16.2599   -0.0668   -1.2748 C   0  0  0  0  0  0  0  0  0  5
   18.0807   -0.2729    0.0153 C   0  0  0  0  0  0  0  0  0  7
   17.6291   -1.4630   -0.0646 C   0  0  0  0  0  0  0  0  0  9
   18.0455   -2.3585    0.3968 H   0  0  0  0  0  0  0  0  0 10
   16.2049   -3.1718   -0.7243 H   0  0  0  0  0  0  0  0  0  0
   15.7852   -2.3094   -2.3198 H   0  0  0  0  0  0  0  0  0  0
   14.7421   -2.0232   -0.8047 H   0  0  0  0  0  0  0  0  0  0
   19.8828    1.3486    0.9146 C   0  0  0  0  0  0  0  0  0  1
   19.4725    2.2511    0.4616 C   0  0  0  0  0  0  0  0  0  2
   20.1599   -0.8318    1.5039 S   0  0  0  0  0  0  0  0  0  3
   19.3570    0.0863    0.7987 C   0  0  0  0  0  0  0  0  0  5
   21.2035    0.0572    2.0682 C   0  0  0  0  0  0  0  0  0  7
   21.0788    1.2840    1.7421 C   0  0  0  0  0  0  0  0  0  9
   21.7309    2.1107    2.0238 H   0  0  0  0  0  0  0  0  0 10
   18.3533    2.3063    0.6710 H   0  0  0  0  0  0  0  0  0  0
   19.6474    2.2243   -0.6646 H   0  0  0  0  0  0  0  0  0  0
   19.9876    3.1666    0.9045 H   0  0  0  0  0  0  0  0  0  0
   22.5182   -1.7634    3.3497 C   0  0  0  0  0  0  0  0  0  1
   21.8754   -2.5981    3.0703 C   0  0  0  0  0  0  0  0  0  2
   23.3548    0.3449    3.5313 S   0  0  0  0  0  0  0  0  0  3
   22.3407   -0.4564    2.9708 C   0  0  0  0  0  0  0  0  0  5
   24.1613   -0.6624    4.2613 C   0  0  0  0  0  0  0  0  0  7
   23.7063   -1.8516    4.1864 C   0  0  0  0  0  0  0  0  0  9
   24.1202   -2.7464    4.6514 H   0  0  0  0  0  0  0  0  0 10
   22.2796   -3.5597    3.5303 H   0  0  0  0  0  0  0  0  0  0
   21.8557   -2.6991    1.9349 H   0  0  0  0  0  0  0  0  0  0
   20.8185   -2.4087    3.4533 H   0  0  0  0  0  0  0  0  0  0
   25.9683    0.9575    5.1535 C   0  0  0  0  0  0  0  0  0  1
   25.5604    1.8593    4.6969 C   0  0  0  0  0  0  0  0  0  2
   26.2393   -1.2212    5.7516 S   0  0  0  0  0  0  0  0  0  3
   25.4388   -0.3037    5.0429 C   0  0  0  0  0  0  0  0  0  5
   27.2856   -0.3329    6.3120 C   0  0  0  0  0  0  0  0  0  7
   27.1643    0.8929    5.9809 C   0  0  0  0  0  0  0  0  0  9
   27.8188    1.7189    6.2591 H   0  0  0  0  0  0  0  0  0 10
   24.4405    1.9162    4.9024 H   0  0  0  0  0  0  0  0  0  0
   25.7392    1.8296    3.5714 H   0  0  0  0  0  0  0  0  0  0
   26.0749    2.7754    5.1393 H   0  0  0  0  0  0  0  0  0  0
   28.5954   -2.1520    7.6007 C   0  0  0  0  0  0  0  0  0  1
   27.9501   -2.9860    7.3248 C   0  0  0  0  0  0  0  0  0  2
   29.4381   -0.0453    7.7734 S   0  0  0  0  0  0  0  0  0  3
   28.4215   -0.8461    7.2164 C   0  0  0  0  0  0  0  0  0  5
   30.2419   -1.0520    8.5072 C   0  0  0  0  0  0  0  0  0  7
   29.7834   -2.2402    8.4373 C   0  0  0  0  0  0  0  0  0  9
   30.1949   -3.1342    8.9059 H   0  0  0  0  0  0  0  0  0 10
   28.3543   -3.9476    7.7848 H   0  0  0  0  0  0  0  0  0  0
   27.9262   -3.0887    6.1896 H   0  0  0  0  0  0  0  0  0  0
   26.8949   -2.7941    7.7113 H   0  0  0  0  0  0  0  0  0  0
   32.0537    0.5664    9.3923 C   0  0  0  0  0  0  0  0  0  1
   31.6483    1.4675    8.9322 C   0  0  0  0  0  0  0  0  0  2
   32.3186   -1.6106    9.9993 S   0  0  0  0  0  0  0  0  0  3
   31.5206   -0.6938    9.2870 C   0  0  0  0  0  0  0  0  0  5
   33.3677   -0.7230   10.5558 C   0  0  0  0  0  0  0  0  0  7
   33.2497    0.5018   10.2197 C   0  0  0  0  0  0  0  0  0  9
   33.9067    1.3270   10.4944 H   0  0  0  0  0  0  0  0  0 10
   30.5277    1.5259    9.1336 H   0  0  0  0  0  0  0  0  0  0
   31.8309    1.4350    7.8074 H   0  0  0  0  0  0  0  0  0  0
   32.1621    2.3841    9.3742 H   0  0  0  0  0  0  0  0  0  0
   34.6726   -2.5406   11.8516 C   0  0  0  0  0  0  0  0  0  1
   34.0249   -3.3739   11.5793 C   0  0  0  0  0  0  0  0  0  2
   35.5213   -0.4356   12.0154 S   0  0  0  0  0  0  0  0  0  3
   34.5024   -1.2357   11.4620 C   0  0  0  0  0  0  0  0  0  5
   36.3224   -1.4415   12.7532 C   0  0  0  0  0  0  0  0  0  7
   37.2284   -1.1883   13.3039 H   0  0  0  0  0  0  0  0  0  8
   35.8606   -2.6287   12.6883 C   0  0  0  0  0  0  0  0  0  9
   36.2696   -3.5220   13.1604 H   0  0  0  0  0  0  0  0  0 10
   34.4290   -4.3354   12.0394 H   0  0  0  0  0  0  0  0  0  0
   33.9967   -3.4782   10.4444 H   0  0  0  0  0  0  0  0  0  0
   32.9714   -3.1795   11.9692 H   0  0  0  0  0  0  0  0  0  0
  1  4  2  0  0  0
  1  7  1  0  0  0
  1  2  1  0  0  0
  3  4  1  0  0  0
  3  6  1  0  0  0
  4  5  1  0  0  0
  6  7  2  0  0  0
  7  8  1  0  0  0
  2  9  1  0  0  0
  2 10  1  0  0  0
  2 11  1  0  0  0
 12 15  2  0  0  0
 12 17  1  0  0  0
 12 13  1  0  0  0
 14 15  1  0  0  0
 14 16  1  0  0  0
 16 17  2  0  0  0
 17 18  1  0  0  0
 13 19  1  0  0  0
 13 20  1  0  0  0
 13 21  1  0  0  0
  6 15  1  0  0  0
 22 25  2  0  0  0
 22 27  1  0  0  0
 22 23  1  0  0  0
 24 25  1  0  0  0
 24 26  1  0  0  0
 26 27  2  0  0  0
 27 28  1  0  0  0
 23 29  1  0  0  0
 23 30  1  0  0  0
 23 31  1  0  0  0
 16 25  1  0  0  0
 32 35  2  0  0  0
 32 37  1  0  0  0
 32 33  1  0  0  0
 34 35  1  0  0  0
 34 36  1  0  0  0
 36 37  2  0  0  0
 37 38  1  0  0  0
 33 39  1  0  0  0
 33 40  1  0  0  0
 33 41  1  0  0  0
 26 35  1  0  0  0
 42 45  2  0  0  0
 42 47  1  0  0  0
 42 43  1  0  0  0
 44 45  1  0  0  0
 44 46  1  0  0  0
 46 47  2  0  0  0
 47 48  1  0  0  0
 43 49  1  0  0  0
 43 50  1  0  0  0
 43 51  1  0  0  0
 36 45  1  0  0  0
 52 55  2  0  0  0
 52 57  1  0  0  0
 52 53  1  0  0  0
 54 55  1  0  0  0
 54 56  1  0  0  0
 56 57  2  0  0  0
 57 58  1  0  0  0
 53 59  1  0  0  0
 53 60  1  0  0  0
 53 61  1  0  0  0
 46 55  1  0  0  0
 62 65  2  0  0  0
 62 67  1  0  0  0
 62 63  1  0  0  0
 64 65  1  0  0  0
 64 66  1  0  0  0
 66 67  2  0  0  0
 67 68  1  0  0  0
 63 69  1  0  0  0
 63 70  1  0  0  0
 63 71  1  0  0  0
 56 65  1  0  0  0
 72 75  2  0  0  0
 72 77  1  0  0  0
 72 73  1  0  0  0
 74 75  1  0  0  0
 74 76  1  0  0  0
 76 77  2  0  0  0
 77 78  1  0  0  0
 73 79  1  0  0  0
 73 80  1  0  0  0
 73 81  1  0  0  0
 66 75  1  0  0  0
 82 85  2  0  0  0
 82 87  1  0  0  0
 82 83  1  0  0  0
 84 85  1  0  0  0
 84 86  1  0  0  0
 86 87  2  0  0  0
 87 88  1  0  0  0
 83 89  1  0  0  0
 83 90  1  0  0  0
 83 91  1  0  0  0
 76 85  1  0  0  0
 92 95  2  0  0  0
 92 98  1  0  0  0
 92 93  1  0  0  0
 94 95  1  0  0  0
 94 96  1  0  0  0
 96 98  2  0  0  0
 96 97  1  0  0  0
 98 99  1  0  0  0
 93100  1  0  0  0
 93101  1  0  0  0
 93102  1  0  0  0
 86 95  1  0  0  0
M  END
