
 OpenBabel09242115213D

102111  0  0  0  0  0  0  0  0999 V2000
    7.1817    2.1345   -8.1756 C   0  0  0  0  0  0  0  0  0  0  0  0
    6.4765    3.4118   -8.4816 C   0  0  0  0  0  0  0  0  0  0  0  0
    7.9252   -0.3321   -8.2217 S   0  0  0  0  0  0  0  0  0  0  0  0
    6.9155    0.9246   -8.7834 C   0  0  0  0  0  0  0  0  0  0  0  0
    6.1765    0.7175   -9.5457 H   0  0  0  0  0  0  0  0  0  0  0  0
    8.7238    0.6993   -7.1103 C   0  0  0  0  0  0  0  0  0  0  0  0
    8.2290    1.9899   -7.2076 C   0  0  0  0  0  0  0  0  0  0  0  0
    8.5978    2.8092   -6.6009 H   0  0  0  0  0  0  0  0  0  0  0  0
    5.4228    3.3449   -8.1925 H   0  0  0  0  0  0  0  0  0  0  0  0
    6.5303    3.6312   -9.5530 H   0  0  0  0  0  0  0  0  0  0  0  0
    6.9249    4.2526   -7.9425 H   0  0  0  0  0  0  0  0  0  0  0  0
    9.8695   -0.9439   -5.5020 C   0  0  0  0  0  0  0  0  0  0  0  0
    8.8779   -2.0637   -5.4825 C   0  0  0  0  0  0  0  0  0  0  0  0
   11.1561    1.2318   -5.9693 S   0  0  0  0  0  0  0  0  0  0  0  0
    9.7777    0.2366   -6.2295 C   0  0  0  0  0  0  0  0  0  0  0  0
   11.8250    0.1881   -4.7953 C   0  0  0  0  0  0  0  0  0  0  0  0
   11.0587   -0.9578   -4.6916 C   0  0  0  0  0  0  0  0  0  0  0  0
   11.3067   -1.7737   -4.0220 H   0  0  0  0  0  0  0  0  0  0  0  0
    9.0865   -2.7590   -4.6621 H   0  0  0  0  0  0  0  0  0  0  0  0
    8.9247   -2.6337   -6.4156 H   0  0  0  0  0  0  0  0  0  0  0  0
    7.8606   -1.6864   -5.3396 H   0  0  0  0  0  0  0  0  0  0  0  0
   13.4632    1.7354   -3.5560 C   0  0  0  0  0  0  0  0  0  0  0  0
   12.8029    3.0657   -3.7382 C   0  0  0  0  0  0  0  0  0  0  0  0
   14.1171   -0.7497   -3.6045 S   0  0  0  0  0  0  0  0  0  0  0  0
   13.0254    0.5081   -4.0437 C   0  0  0  0  0  0  0  0  0  0  0  0
   15.0840    0.2745   -2.6399 C   0  0  0  0  0  0  0  0  0  0  0  0
   14.6540    1.5816   -2.7640 C   0  0  0  0  0  0  0  0  0  0  0  0
   15.1369    2.4107   -2.2588 H   0  0  0  0  0  0  0  0  0  0  0  0
   11.7374    3.0131   -3.4942 H   0  0  0  0  0  0  0  0  0  0  0  0
   12.9245    3.4174   -4.7673 H   0  0  0  0  0  0  0  0  0  0  0  0
   13.2491    3.8195   -3.0803 H   0  0  0  0  0  0  0  0  0  0  0  0
   16.2889   -1.3819   -1.0848 C   0  0  0  0  0  0  0  0  0  0  0  0
   15.2915   -2.4951   -1.0166 C   0  0  0  0  0  0  0  0  0  0  0  0
   17.5825    0.7755   -1.6120 S   0  0  0  0  0  0  0  0  0  0  0  0
   16.1812   -0.2048   -1.8185 C   0  0  0  0  0  0  0  0  0  0  0  0
   18.2573   -0.2473   -0.4234 C   0  0  0  0  0  0  0  0  0  0  0  0
   17.4960   -1.3938   -0.3014 C   0  0  0  0  0  0  0  0  0  0  0  0
   17.7517   -2.2006    0.3763 H   0  0  0  0  0  0  0  0  0  0  0  0
   15.5389   -3.1960   -0.2118 H   0  0  0  0  0  0  0  0  0  0  0  0
   15.2833   -3.0615   -1.9529 H   0  0  0  0  0  0  0  0  0  0  0  0
   14.2868   -2.1113   -0.8142 H   0  0  0  0  0  0  0  0  0  0  0  0
   19.8616    1.3190    0.8323 C   0  0  0  0  0  0  0  0  0  0  0  0
   19.1735    2.6362    0.6584 C   0  0  0  0  0  0  0  0  0  0  0  0
   20.5639   -1.1529    0.7663 S   0  0  0  0  0  0  0  0  0  0  0  0
   19.4524    0.0880    0.3294 C   0  0  0  0  0  0  0  0  0  0  0  0
   21.4944   -0.1205    1.7580 C   0  0  0  0  0  0  0  0  0  0  0  0
   21.0462    1.1805    1.6369 C   0  0  0  0  0  0  0  0  0  0  0  0
   21.5069    2.0125    2.1578 H   0  0  0  0  0  0  0  0  0  0  0  0
   18.1066    2.5562    0.8886 H   0  0  0  0  0  0  0  0  0  0  0  0
   19.2986    3.0028   -0.3650 H   0  0  0  0  0  0  0  0  0  0  0  0
   19.5942    3.3914    1.3313 H   0  0  0  0  0  0  0  0  0  0  0  0
   22.6717   -1.7567    3.3504 C   0  0  0  0  0  0  0  0  0  0  0  0
   21.6648   -2.8609    3.4233 C   0  0  0  0  0  0  0  0  0  0  0  0
   23.9817    0.3886    2.8113 S   0  0  0  0  0  0  0  0  0  0  0  0
   22.5807   -0.5902    2.5982 C   0  0  0  0  0  0  0  0  0  0  0  0
   24.6391   -0.6249    4.0179 C   0  0  0  0  0  0  0  0  0  0  0  0
   23.8696   -1.7654    4.1469 C   0  0  0  0  0  0  0  0  0  0  0  0
   24.1131   -2.5643    4.8382 H   0  0  0  0  0  0  0  0  0  0  0  0
   21.8906   -3.5450    4.2486 H   0  0  0  0  0  0  0  0  0  0  0  0
   21.6709   -3.4478    2.4997 H   0  0  0  0  0  0  0  0  0  0  0  0
   20.6591   -2.4655    3.5964 H   0  0  0  0  0  0  0  0  0  0  0  0
   26.2373    0.9423    5.2806 C   0  0  0  0  0  0  0  0  0  0  0  0
   25.5584    2.2616    5.0896 C   0  0  0  0  0  0  0  0  0  0  0  0
   26.9292   -1.5326    5.2351 S   0  0  0  0  0  0  0  0  0  0  0  0
   25.8279   -0.2895    4.7802 C   0  0  0  0  0  0  0  0  0  0  0  0
   27.8492   -0.5011    6.2378 C   0  0  0  0  0  0  0  0  0  0  0  0
   27.4099    0.8017    6.1027 C   0  0  0  0  0  0  0  0  0  0  0  0
   27.8671    1.6344    6.6257 H   0  0  0  0  0  0  0  0  0  0  0  0
   24.4886    2.1888    5.3087 H   0  0  0  0  0  0  0  0  0  0  0  0
   25.6963    2.6199    4.0649 H   0  0  0  0  0  0  0  0  0  0  0  0
   25.9760    3.0196    5.7614 H   0  0  0  0  0  0  0  0  0  0  0  0
   29.0025   -2.1472    7.8392 C   0  0  0  0  0  0  0  0  0  0  0  0
   28.0026   -3.2593    7.8812 C   0  0  0  0  0  0  0  0  0  0  0  0
   30.3114    0.0097    7.3480 S   0  0  0  0  0  0  0  0  0  0  0  0
   28.9198   -0.9737    7.0970 C   0  0  0  0  0  0  0  0  0  0  0  0
   30.9551   -1.0160    8.5515 C   0  0  0  0  0  0  0  0  0  0  0  0
   30.1850   -2.1585    8.6579 C   0  0  0  0  0  0  0  0  0  0  0  0
   30.4201   -2.9646    9.3438 H   0  0  0  0  0  0  0  0  0  0  0  0
   28.2201   -3.9528    8.7008 H   0  0  0  0  0  0  0  0  0  0  0  0
   28.0284   -3.8342    6.9504 H   0  0  0  0  0  0  0  0  0  0  0  0
   26.9914   -2.8735    8.0432 H   0  0  0  0  0  0  0  0  0  0  0  0
   32.5653    0.5354    9.8227 C   0  0  0  0  0  0  0  0  0  0  0  0
   31.9134    1.8659    9.6170 C   0  0  0  0  0  0  0  0  0  0  0  0
   33.2198   -1.9491    9.7906 S   0  0  0  0  0  0  0  0  0  0  0  0
   32.1390   -0.6922    9.3263 C   0  0  0  0  0  0  0  0  0  0  0  0
   34.1740   -0.9234   10.7671 C   0  0  0  0  0  0  0  0  0  0  0  0
   33.7366    0.3814   10.6445 C   0  0  0  0  0  0  0  0  0  0  0  0
   34.2109    1.2118   11.1562 H   0  0  0  0  0  0  0  0  0  0  0  0
   30.8418    1.8175    9.8331 H   0  0  0  0  0  0  0  0  0  0  0  0
   32.0621    2.2106    8.5889 H   0  0  0  0  0  0  0  0  0  0  0  0
   32.3453    2.6226   10.2810 H   0  0  0  0  0  0  0  0  0  0  0  0
   35.4449   -2.6138   12.2434 C   0  0  0  0  0  0  0  0  0  0  0  0
   34.4669   -3.7454   12.3003 C   0  0  0  0  0  0  0  0  0  0  0  0
   36.6624   -0.3843   11.8006 S   0  0  0  0  0  0  0  0  0  0  0  0
   35.2874   -1.4039   11.5674 C   0  0  0  0  0  0  0  0  0  0  0  0
   37.4479   -1.5223   12.7891 C   0  0  0  0  0  0  0  0  0  0  0  0
   38.4174   -1.3039   13.2139 H   0  0  0  0  0  0  0  0  0  0  0  0
   36.7024   -2.6662   12.9403 C   0  0  0  0  0  0  0  0  0  0  0  0
   37.0356   -3.5077   13.5356 H   0  0  0  0  0  0  0  0  0  0  0  0
   34.7413   -4.4623   13.0819 H   0  0  0  0  0  0  0  0  0  0  0  0
   34.4525   -4.2873   11.3495 H   0  0  0  0  0  0  0  0  0  0  0  0
   33.4594   -3.3857   12.5301 H   0  0  0  0  0  0  0  0  0  0  0  0
  1  4  2  0  0  0  0
  1  7  1  0  0  0  0
  1  2  1  0  0  0  0
  2  9  1  0  0  0  0
  2 10  1  0  0  0  0
  2 11  1  0  0  0  0
  3  4  1  0  0  0  0
  3  6  1  0  0  0  0
  4  5  1  0  0  0  0
  6  7  2  0  0  0  0
  6 15  1  0  0  0  0
  7  8  1  0  0  0  0
 12 15  2  0  0  0  0
 12 17  1  0  0  0  0
 12 13  1  0  0  0  0
 13 19  1  0  0  0  0
 13 20  1  0  0  0  0
 13 21  1  0  0  0  0
 14 15  1  0  0  0  0
 14 16  1  0  0  0  0
 16 17  2  0  0  0  0
 16 25  1  0  0  0  0
 17 18  1  0  0  0  0
 22 25  2  0  0  0  0
 22 27  1  0  0  0  0
 22 23  1  0  0  0  0
 23 29  1  0  0  0  0
 23 30  1  0  0  0  0
 23 31  1  0  0  0  0
 24 25  1  0  0  0  0
 24 26  1  0  0  0  0
 26 27  2  0  0  0  0
 26 35  1  0  0  0  0
 27 28  1  0  0  0  0
 32 35  2  0  0  0  0
 32 37  1  0  0  0  0
 32 33  1  0  0  0  0
 33 39  1  0  0  0  0
 33 40  1  0  0  0  0
 33 41  1  0  0  0  0
 34 35  1  0  0  0  0
 34 36  1  0  0  0  0
 36 37  2  0  0  0  0
 36 45  1  0  0  0  0
 37 38  1  0  0  0  0
 42 45  2  0  0  0  0
 42 47  1  0  0  0  0
 42 43  1  0  0  0  0
 43 49  1  0  0  0  0
 43 50  1  0  0  0  0
 43 51  1  0  0  0  0
 44 45  1  0  0  0  0
 44 46  1  0  0  0  0
 46 47  2  0  0  0  0
 46 55  1  0  0  0  0
 47 48  1  0  0  0  0
 52 55  2  0  0  0  0
 52 57  1  0  0  0  0
 52 53  1  0  0  0  0
 53 59  1  0  0  0  0
 53 60  1  0  0  0  0
 53 61  1  0  0  0  0
 54 55  1  0  0  0  0
 54 56  1  0  0  0  0
 56 57  2  0  0  0  0
 56 65  1  0  0  0  0
 57 58  1  0  0  0  0
 62 65  2  0  0  0  0
 62 67  1  0  0  0  0
 62 63  1  0  0  0  0
 63 69  1  0  0  0  0
 63 70  1  0  0  0  0
 63 71  1  0  0  0  0
 64 65  1  0  0  0  0
 64 66  1  0  0  0  0
 66 67  2  0  0  0  0
 66 75  1  0  0  0  0
 67 68  1  0  0  0  0
 72 75  2  0  0  0  0
 72 77  1  0  0  0  0
 72 73  1  0  0  0  0
 73 79  1  0  0  0  0
 73 80  1  0  0  0  0
 73 81  1  0  0  0  0
 74 75  1  0  0  0  0
 74 76  1  0  0  0  0
 76 77  2  0  0  0  0
 76 85  1  0  0  0  0
 77 78  1  0  0  0  0
 82 85  2  0  0  0  0
 82 87  1  0  0  0  0
 82 83  1  0  0  0  0
 83 89  1  0  0  0  0
 83 90  1  0  0  0  0
 83 91  1  0  0  0  0
 84 85  1  0  0  0  0
 84 86  1  0  0  0  0
 86 87  2  0  0  0  0
 86 95  1  0  0  0  0
 87 88  1  0  0  0  0
 92 95  2  0  0  0  0
 92 98  1  0  0  0  0
 92 93  1  0  0  0  0
 93100  1  0  0  0  0
 93101  1  0  0  0  0
 93102  1  0  0  0  0
 94 95  1  0  0  0  0
 94 96  1  0  0  0  0
 96 98  2  0  0  0  0
 96 97  1  0  0  0  0
 98 99  1  0  0  0  0
M  END
