3D Atomistic
  MatStudio         3D                             0

 12 12  0  0  0  0  0  0  0  0999 V2000
   -2.9932   -0.5507    1.0000 F   0  0  0  0  0  0  0  0  0 12
   -1.3353    0.6721    1.6280 C   0  0  0  0  0  0  0  0  0  1
   -1.9055    1.5893    1.6227 F   0  0  0  0  0  0  0  0  0  2
    0.0179    0.6912    1.9865 C   0  0  0  0  0  0  0  0  0  3
    0.4916    1.6231    2.2576 F   0  0  0  0  0  0  0  0  0  4
    0.7571   -0.4977    1.9934 C   0  0  0  0  0  0  0  0  0  5
    1.8010   -0.4830    2.2699 F   0  0  0  0  0  0  0  0  0  6
    0.1430   -1.7058    1.6419 C   0  0  0  0  0  0  0  0  0  7
    0.7132   -2.6230    1.6472 F   0  0  0  0  0  0  0  0  0  8
   -1.2102   -1.7249    1.2835 C   0  0  0  0  0  0  0  0  0  9
   -1.6839   -2.6568    1.0123 F   0  0  0  0  0  0  0  0  0 10
   -1.9493   -0.5359    1.2765 C   0  0  0  0  0  0  0  0  0 11
  2  4  4  0  0  0
  2 12  4  0  0  0
  2  3  1  0  0  0
  4  6  4  0  0  0
  4  5  1  0  0  0
  6  8  4  0  0  0
  6  7  1  0  0  0
  8 10  4  0  0  0
  8  9  1  0  0  0
 10 12  4  0  0  0
 10 11  1  0  0  0
 12  1  1  0  0  0
M  END
