BQ
  MatStudio         3D                             0

 12 12  0  0  0  0  0  0  0  0999 V2000
   11.0922    4.1809   18.1275 C   0  0  0  0  0  0  0  0  0  0
   11.0925    4.1683   16.7832 C   0  0  0  0  0  0  0  0  0  0
   12.3634    4.1653   16.0319 C   0  0  0  0  0  0  0  0  0  0
   13.6334    4.1683   16.7838 C   0  0  0  0  0  0  0  0  0  0
   13.6343    4.1762   18.1278 C   0  0  0  0  0  0  0  0  0  0
   12.3632    4.2123   18.8996 C   0  0  0  0  0  0  0  0  0  0
   12.3688    4.2585   20.1417 O   0  0  0  0  0  0  0  0  0  0
   12.3706    4.1246   14.7851 O   0  0  0  0  0  0  0  0  0  0
   14.5507    4.1410   18.7157 H   0  0  0  0  0  0  0  0  0  0
   14.5416    4.1297   16.1824 H   0  0  0  0  0  0  0  0  0  0
   10.1759    4.1494   18.7154 H   0  0  0  0  0  0  0  0  0  0
   10.1830    4.1332   16.1824 H   0  0  0  0  0  0  0  0  0  0
  2  1  2  0  0  0
  3  2  1  0  0  0
  4  3  1  0  0  0
  5  4  2  0  0  0
  6  5  1  0  0  0
  6  1  1  0  0  0
  7  6  2  0  0  0
  8  3  2  0  0  0
  9  5  1  0  0  0
 10  4  1  0  0  0
 11  1  1  0  0  0
 12  2  1  0  0  0
M  END
