CarboxylicAcid
  MatStudio         3D                             0

  5  4  0  0  0  0  0  0  0  0999 V2000
   -2.3001    0.9747    1.0000 H   0  0  0  0  0  0  0  0  0  4
   -1.7352    0.0660    1.0053 C   0  0  0  0  0  0  0  0  0  1
   -0.5463    0.0828    1.3202 O   0  0  0  0  0  0  0  0  0  2
   -2.3317   -1.1075    0.6639 O   0  0  0  0  0  0  0  0  0  3
   -1.6914   -1.8206    0.7198 H   0  0  0  0  0  0  0  0  0  5
  2  3  2  0  0  0
  2  4  1  0  0  0
  2  1  1  0  0  0
  4  5  1  0  0  0
M  END
